neigh_modify   every 1 delay 0 check yes

units          real
boundary       p p p
atom_style     full
newton         off

### Potential styles
pair_style     lj/long/coul/long long long 6.0
kspace_style   pppm/disp 1e-4
kspace_modify  force/disp/real 1e-4 force/disp/kspace 2e-3
bond_style     harmonic
angle_style    harmonic
dihedral_style opls
special_bonds  lj/coul 0.0 0.0 0.5

read_data      equil_NVE1.data
Reading data file ...
  orthogonal box = (-22.975977 -22.975977 -22.975977) to (22.975977 22.975977 22.975977)
  reading atoms ...
  9000 atoms
  reading velocities ...
  9000 velocities
  scanning bonds ...
  scanning angles ...
  scanning dihedrals ...
  reading bonds ...
  8000 bonds
  reading angles ...
  13000 angles
  reading dihedrals ...
  12000 dihedrals
Finding 1-2 1-3 1-4 neighbors ...
     4 = max # of 1-2 neighbors
     4 = max # of 1-3 neighbors
     7 = max # of 1-4 neighbors
     8 = max # of special neighbors

variable       mols_per_group equal 10

variable       n loop 20
label          LOOP1
	variable i1 equal ((1-1)*10+1)
	variable i2 equal (1+10-1)

	group sample1 molecule 1:10
90 atoms in group sample1
next           n
jump           SELF LOOP1
	variable i1 equal ((2-1)*10+1)
	variable i2 equal (11+10-1)

	group sample2 molecule 11:20
90 atoms in group sample2
next           n
jump           SELF LOOP1
	variable i1 equal ((3-1)*10+1)
	variable i2 equal (21+10-1)

	group sample3 molecule 21:30
90 atoms in group sample3
next           n
jump           SELF LOOP1
	variable i1 equal ((4-1)*10+1)
	variable i2 equal (31+10-1)

	group sample4 molecule 31:40
90 atoms in group sample4
next           n
jump           SELF LOOP1
	variable i1 equal ((5-1)*10+1)
	variable i2 equal (41+10-1)

	group sample5 molecule 41:50
90 atoms in group sample5
next           n
jump           SELF LOOP1
	variable i1 equal ((6-1)*10+1)
	variable i2 equal (51+10-1)

	group sample6 molecule 51:60
90 atoms in group sample6
next           n
jump           SELF LOOP1
	variable i1 equal ((7-1)*10+1)
	variable i2 equal (61+10-1)

	group sample7 molecule 61:70
90 atoms in group sample7
next           n
jump           SELF LOOP1
	variable i1 equal ((8-1)*10+1)
	variable i2 equal (71+10-1)

	group sample8 molecule 71:80
90 atoms in group sample8
next           n
jump           SELF LOOP1
	variable i1 equal ((9-1)*10+1)
	variable i2 equal (81+10-1)

	group sample9 molecule 81:90
90 atoms in group sample9
next           n
jump           SELF LOOP1
	variable i1 equal ((10-1)*10+1)
	variable i2 equal (91+10-1)

	group sample10 molecule 91:100
90 atoms in group sample10
next           n
jump           SELF LOOP1
	variable i1 equal ((11-1)*10+1)
	variable i2 equal (101+10-1)

	group sample11 molecule 101:110
90 atoms in group sample11
next           n
jump           SELF LOOP1
	variable i1 equal ((12-1)*10+1)
	variable i2 equal (111+10-1)

	group sample12 molecule 111:120
90 atoms in group sample12
next           n
jump           SELF LOOP1
	variable i1 equal ((13-1)*10+1)
	variable i2 equal (121+10-1)

	group sample13 molecule 121:130
90 atoms in group sample13
next           n
jump           SELF LOOP1
	variable i1 equal ((14-1)*10+1)
	variable i2 equal (131+10-1)

	group sample14 molecule 131:140
90 atoms in group sample14
next           n
jump           SELF LOOP1
	variable i1 equal ((15-1)*10+1)
	variable i2 equal (141+10-1)

	group sample15 molecule 141:150
90 atoms in group sample15
next           n
jump           SELF LOOP1
	variable i1 equal ((16-1)*10+1)
	variable i2 equal (151+10-1)

	group sample16 molecule 151:160
90 atoms in group sample16
next           n
jump           SELF LOOP1
	variable i1 equal ((17-1)*10+1)
	variable i2 equal (161+10-1)

	group sample17 molecule 161:170
90 atoms in group sample17
next           n
jump           SELF LOOP1
	variable i1 equal ((18-1)*10+1)
	variable i2 equal (171+10-1)

	group sample18 molecule 171:180
90 atoms in group sample18
next           n
jump           SELF LOOP1
	variable i1 equal ((19-1)*10+1)
	variable i2 equal (181+10-1)

	group sample19 molecule 181:190
90 atoms in group sample19
next           n
jump           SELF LOOP1
	variable i1 equal ((20-1)*10+1)
	variable i2 equal (191+10-1)

	group sample20 molecule 191:200
90 atoms in group sample20
next           n
jump           SELF LOOP1

#group          sample molecule 1:50
#group          sample molecule 1:200

timestep       1.6
run_style      respa 4 2 2 2 bond 1 dihedral 2 pair 3 kspace 4
Respa levels:
  1 = bond angle
  2 = dihedral improper
  3 = pair
  4 = kspace

thermo         500
thermo_style   custom step temp pe etotal enthalpy press vol density

#fix            1 all npt iso 0.0 0.0 $(1000*dt) temp 300 300 $(100*dt)
fix            1 all nve

#run            500000

#write_data     equil_NVE1.data

#dump           1 sample custom 1 positions0.dump  id mol type xu yu zu

variable       n loop 20
label          LOOP2
	variable dump_id equal (1+0)
	dump 1 sample1 custom 1 velocities1.dump id type vx vy vz
next           n
jump           SELF LOOP2
	variable dump_id equal (2+0)
	dump 2 sample2 custom 1 velocities2.dump id type vx vy vz
next           n
jump           SELF LOOP2
	variable dump_id equal (3+0)
	dump 3 sample3 custom 1 velocities3.dump id type vx vy vz
next           n
jump           SELF LOOP2
	variable dump_id equal (4+0)
	dump 4 sample4 custom 1 velocities4.dump id type vx vy vz
next           n
jump           SELF LOOP2
	variable dump_id equal (5+0)
	dump 5 sample5 custom 1 velocities5.dump id type vx vy vz
next           n
jump           SELF LOOP2
	variable dump_id equal (6+0)
	dump 6 sample6 custom 1 velocities6.dump id type vx vy vz
next           n
jump           SELF LOOP2
	variable dump_id equal (7+0)
	dump 7 sample7 custom 1 velocities7.dump id type vx vy vz
next           n
jump           SELF LOOP2
	variable dump_id equal (8+0)
	dump 8 sample8 custom 1 velocities8.dump id type vx vy vz
next           n
jump           SELF LOOP2
	variable dump_id equal (9+0)
	dump 9 sample9 custom 1 velocities9.dump id type vx vy vz
next           n
jump           SELF LOOP2
	variable dump_id equal (10+0)
	dump 10 sample10 custom 1 velocities10.dump id type vx vy vz
next           n
jump           SELF LOOP2
	variable dump_id equal (11+0)
	dump 11 sample11 custom 1 velocities11.dump id type vx vy vz
next           n
jump           SELF LOOP2
	variable dump_id equal (12+0)
	dump 12 sample12 custom 1 velocities12.dump id type vx vy vz
next           n
jump           SELF LOOP2
	variable dump_id equal (13+0)
	dump 13 sample13 custom 1 velocities13.dump id type vx vy vz
next           n
jump           SELF LOOP2
	variable dump_id equal (14+0)
	dump 14 sample14 custom 1 velocities14.dump id type vx vy vz
next           n
jump           SELF LOOP2
	variable dump_id equal (15+0)
	dump 15 sample15 custom 1 velocities15.dump id type vx vy vz
next           n
jump           SELF LOOP2
	variable dump_id equal (16+0)
	dump 16 sample16 custom 1 velocities16.dump id type vx vy vz
next           n
jump           SELF LOOP2
	variable dump_id equal (17+0)
	dump 17 sample17 custom 1 velocities17.dump id type vx vy vz
next           n
jump           SELF LOOP2
	variable dump_id equal (18+0)
	dump 18 sample18 custom 1 velocities18.dump id type vx vy vz
next           n
jump           SELF LOOP2
	variable dump_id equal (19+0)
	dump 19 sample19 custom 1 velocities19.dump id type vx vy vz
next           n
jump           SELF LOOP2
	variable dump_id equal (20+0)
	dump 20 sample20 custom 1 velocities20.dump id type vx vy vz
next           n
jump           SELF LOOP2

run            131071 # 2^17 - 1
PPPMDisp initialization ...
Generated 15 of 15 mixed pair_coeff terms from geometric mixing rule
  Coulomb G vector (1/distance)= 0.3976395358034154
  Coulomb grid = 30 30 30
  Coulomb stencil order = 5
  Coulomb estimated absolute RMS force accuracy = 0.031176193
  Coulomb estimated relative force accuracy = 9.3886178e-05
  3d grid and FFT values/proc = 6292 1800
  Dispersion G vector (1/distance)= 0.5295435587565104
  Dispersion grid = 48 48 48
  Dispersion stencil order = 5
  Dispersion estimated absolute RMS force accuracy = 0.0011333205
  Dispersion estimated relative force accuracy = 3.4129611e-06
  3d grid and FFT values/proc = 16337 6912
Generated 15 of 15 mixed pair_coeff terms from geometric mixing rule
Last active /omp style is kspace_style pppm/disp/omp
Step          Temp          PotEng         TotEng        Enthalpy        Press          Volume        Density
0   308.89109     -2654.4879      5631.3022      6742.4179      785.18404      97031.318      0.78837203
Averages over the last 132 of 264 rows, steps 66000 to 131071:
Temp PotEng TotEng Enthalpy Press Volume Density
309.89 -2607.83 5704.75 5797.4 65.4739 97031.3 0.788372
Loop time of 1187.4 on 20 procs for 131071 steps with 9000 atoms
